           6
  t=         0.00000    5    2
C      -0.003964215      0.001908065     -0.156142404
Si      0.000915334     -0.001577065      1.565385503
H       0.902631724      0.089415655     -0.643089411
H       1.321448933     -0.054402915      2.401788593
H      -1.279407497      0.082830966      2.308130852
H      -0.922881383     -0.096783903     -0.691780647
           6
  t=         0.50000    5    2
C      -0.004714209     -0.000000382     -0.160169081
Si      0.000881802     -0.001469355      1.565309720
H       0.903144679      0.096451703     -0.646000148
H       1.332533929     -0.053077728      2.425843623
H      -1.288568374      0.082129577      2.315760238
H      -0.915458182     -0.084710622     -0.670504913
           6
  t=         1.00000    5    2
C      -0.005522419     -0.001928791     -0.164218938
Si      0.000922922     -0.001384789      1.565544490
H       0.907275278      0.105564405     -0.652482457
H       1.339405321     -0.052469379      2.447608193
H      -1.296172219      0.082672564      2.323477839
H      -0.910375227     -0.074361390     -0.651800198
           6
  t=         1.50000    5    2
C      -0.006182510     -0.003860921     -0.168205989
Si      0.001039731     -0.001331705      1.566102331
H       0.914266591      0.116715084     -0.662191930
H       1.341710205     -0.052469021      2.466703998
H      -1.301866140      0.084522387      2.331023492
H      -0.909361120     -0.065830719     -0.636743790
           6
  t=         2.00000    5    2
C      -0.006496799     -0.005781056     -0.172088447
Si      0.001230805     -0.001320961      1.566989517
H       0.922978125      0.129823510     -0.674563702
H       1.339247094     -0.052961472      2.482848153
H      -1.305380233      0.087782663      2.338187177
H      -0.913658056     -0.059142937     -0.626079356
           6
  t=         2.50000    5    2
C      -0.006319193     -0.007674939     -0.175871795
Si      0.001492706     -0.001365877      1.568206322
H       0.932085536      0.144778123     -0.688913498
H       1.331951269     -0.053823942      2.495845585
H      -1.306531648      0.092597100      2.344812448
H      -0.923703869     -0.054252979     -0.620081978
           6
  t=         3.00000    5    2
C      -0.005581676     -0.009530038     -0.179603259
Si      0.001820068     -0.001481845      1.569746893
H       0.940266333      0.161452931     -0.704530205
H       1.319886956     -0.054928509      2.505586487
H      -1.305225568      0.099145757      2.350799969
H      -0.938996011     -0.051064706     -0.618528847
