           6
  t=         0.00000    5    2
C      -0.003964215      0.001908065     -0.156142404
Si      0.000915334     -0.001577065      1.565385503
H       0.902631724      0.089415655     -0.643089411
H       1.321448933     -0.054402915      2.401788593
H      -1.279407497      0.082830966      2.308130852
H      -0.922881383     -0.096783903     -0.691780647
           6
  t=         0.50000    5    2
C      -0.004714209     -0.000000382     -0.160169083
Si      0.000881802     -0.001469355      1.565309722
H       0.903144679      0.096451692     -0.646000149
H       1.332533931     -0.053077721      2.425843618
H      -1.288568376      0.082129570      2.315760233
H      -0.915458182     -0.084710612     -0.670504914
           6
  t=         1.00000    5    2
C      -0.005522419     -0.001928795     -0.164218921
Si      0.000922922     -0.001384783      1.565544418
H       0.907275284      0.105564410     -0.652482084
H       1.339405295     -0.052469435      2.447608703
H      -1.296172198      0.082672517      2.323478340
H      -0.910375232     -0.074361406     -0.651799788
           6
  t=         1.50000    5    2
C      -0.006182510     -0.003860930     -0.168205949
Si      0.001039731     -0.001331690      1.566102158
H       0.914266625      0.116715079     -0.662190998
H       1.341710118     -0.052469157      2.466705205
H      -1.301866062      0.084522253      2.331024709
H      -0.909361160     -0.065830753     -0.636742825
           6
  t=         2.00000    5    2
C      -0.006496798     -0.005781067     -0.172088386
Si      0.001230806     -0.001320941      1.566989285
H       0.922978213      0.129823524     -0.674562499
H       1.339246967     -0.052961669      2.482849780
H      -1.305380108      0.087782495      2.338188799
H      -0.913658155     -0.059143012     -0.626078083
           6
  t=         2.50000    5    2
C      -0.006319191     -0.007674945     -0.175871719
Si      0.001492706     -0.001365855      1.568206072
H       0.932085691      0.144778128     -0.688912248
H       1.331951120     -0.053824173      2.495847337
H      -1.306531472      0.092596904      2.344814169
H      -0.923704069     -0.054253096     -0.620080660
           6
  t=         3.00000    5    2
C      -0.005581672     -0.009530043     -0.179603160
Si      0.001820067     -0.001481819      1.569746615
H       0.940266590      0.161452962     -0.704528891
H       1.319886761     -0.054928802      2.505588436
H      -1.305225311      0.099145533      2.350801854
H      -0.938996354     -0.051064886     -0.618527441
