           6
  t=         0.00000    5    2
C      -0.003964215      0.001908065     -0.156142404
Si      0.000915334     -0.001577065      1.565385503
H       0.902631724      0.089415655     -0.643089411
H       1.321448933     -0.054402915      2.401788593
H      -1.279407497      0.082830966      2.308130852
H      -0.922881383     -0.096783903     -0.691780647
           6
  t=         0.50000    5    2
C      -0.004714209     -0.000000382     -0.160169081
Si      0.000881802     -0.001469355      1.565309720
H       0.903144679      0.096451703     -0.646000148
H       1.332533928     -0.053077728      2.425843623
H      -1.288568374      0.082129577      2.315760238
H      -0.915458182     -0.084710622     -0.670504913
           6
  t=         1.00000    5    2
C      -0.005522418     -0.001928792     -0.164218919
Si      0.000922922     -0.001384783      1.565544422
H       0.907275294      0.105564360     -0.652482070
H       1.339405256     -0.052469422      2.447608614
H      -1.296172168      0.082672494      2.323478311
H      -0.910375258     -0.074361412     -0.651799860
           6
  t=         1.50000    5    2
C      -0.006182509     -0.003860922     -0.168205934
Si      0.001039732     -0.001331691      1.566102160
H       0.914266644      0.116715007     -0.662190981
H       1.341710044     -0.052469143      2.466705051
H      -1.301866005      0.084522229      2.331024664
H      -0.909361196     -0.065830785     -0.636742946
           6
  t=         2.00000    5    2
C      -0.006496797     -0.005781052     -0.172088366
Si      0.001230806     -0.001320942      1.566989291
H       0.922978230      0.129823390     -0.674562454
H       1.339246854     -0.052961645      2.482849505
H      -1.305380014      0.087782452      2.338188708
H      -0.913658198     -0.059143067     -0.626078293
           6
  t=         2.50000    5    2
C      -0.006319190     -0.007674924     -0.175871690
Si      0.001492706     -0.001365856      1.568206078
H       0.932085724      0.144777995     -0.688912205
H       1.331950964     -0.053824152      2.495846995
H      -1.306531349      0.092596884      2.344814070
H      -0.923704114     -0.054253196     -0.620080919
           6
  t=         3.00000    5    2
C      -0.005581672     -0.009530016     -0.179603127
Si      0.001820067     -0.001481821      1.569746625
H       0.940266625      0.161452789     -0.704528826
H       1.319886580     -0.054928779      2.505588000
H      -1.305225168      0.099145507      2.350801726
H      -0.938996376     -0.051065015     -0.618527760
