           6
  t=         0.00000    5    2
C      -0.003964215      0.001908065     -0.156142404
Si      0.000915334     -0.001577065      1.565385503
H       0.902631724      0.089415655     -0.643089411
H       1.321448933     -0.054402915      2.401788593
H      -1.279407497      0.082830966      2.308130852
H      -0.922881383     -0.096783903     -0.691780647
           6
  t=         0.25000    5    2
C      -0.004310321      0.000958275     -0.158137691
Si      0.000889777     -0.001521068      1.565311182
H       0.902408237      0.092674357     -0.644092662
H       1.327452523     -0.053637389      2.414041947
H      -1.284129116      0.082327465      2.311896424
H      -0.919109712     -0.090550305     -0.680975257
           6
  t=         0.50000    5    2
C      -0.004694464      0.000001483     -0.160153173
Si      0.000882462     -0.001470040      1.565312286
H       0.903135137      0.096453109     -0.646004538
H       1.332462892     -0.053064385      2.425780077
H      -1.288513100      0.082131114      2.315721235
H      -0.915686302     -0.084730084     -0.670658603
           6
  t=         0.75000    5    2
C      -0.005093800     -0.000960365     -0.162174799
Si      0.000893809     -0.001424807      1.565391009
H       0.904766881      0.100751077     -0.648809606
H       1.336420451     -0.052670549      2.436945997
H      -1.292508469      0.082245978      2.319568479
H      -0.912840713     -0.079340078     -0.660980482
           6
  t=         1.00000    5    2
C      -0.005483355     -0.001925277     -0.164190705
Si      0.000924035     -0.001386335      1.565549073
H       0.907224307      0.105564868     -0.652473327
H       1.339276265     -0.052442417      2.447489676
H      -1.296068872      0.082678615      2.323404542
H      -0.910794582     -0.074393777     -0.652080888
           6
  t=         1.25000    5    2
C      -0.005837261     -0.002891247     -0.166191548
Si      0.000973184     -0.001355753      1.565787867
H       0.910398731      0.110888403     -0.656944910
H       1.340991447     -0.052366172      2.457366868
H      -1.299152942      0.083438203      2.327198315
H      -0.909750893     -0.069900684     -0.644085060
           6
  t=         1.50000    5    2
C      -0.006130138     -0.003856299     -0.168170728
Si      0.001041146     -0.001334343      1.566108364
H       0.914157371      0.116712981     -0.662159557
H       1.341536504     -0.052427607      2.466539451
H      -1.301724468      0.084536476      2.330922012
H      -0.909882725     -0.065865946     -0.637097463
           6
  t=         1.75000    5    2
C      -0.006338500     -0.004818519     -0.170124538
Si      0.001127674     -0.001323546      1.566511143
H       0.918349507      0.123027520     -0.668041683
H       1.340890836     -0.052612048      2.474975057
H      -1.303752551      0.085987718      2.334551177
H      -0.911322500     -0.062290223     -0.631197057
           6
  t=         2.00000    5    2
C      -0.006442029     -0.005776075     -0.172052217
Si      0.001232399     -0.001324963      1.566996450
H       0.922812867      0.129818938     -0.674508430
H       1.339042374     -0.052904290      2.482646496
H      -1.305211736      0.087808764      2.338064398
H      -0.914152938     -0.059169878     -0.626434027
           6
  t=         2.25000    5    2
C      -0.006424601     -0.006727235     -0.173955821
Si      0.001354830     -0.001340334      1.567564093
H       0.927379780      0.137072671     -0.681472136
H       1.335987209     -0.053288735      2.489532347
H      -1.306082008      0.090018815      2.341444162
H      -0.918400904     -0.056497429     -0.622827291
           6
  t=         2.50000    5    2
C      -0.006274929     -0.007670366     -0.175840004
Si      0.001494358     -0.001371535      1.568213540
H       0.931882678      0.144773212     -0.688843675
H       1.331729482     -0.053749415      2.495616214
H      -1.306348853      0.092639388      2.344676222
H      -0.924034924     -0.054262250     -0.620365111
           6
  t=         2.75000    5    2
C      -0.005986817     -0.008603936     -0.177711637
Si      0.001650249     -0.001420549      1.568943853
H       0.936158804      0.152904698     -0.696534495
H       1.326281262     -0.054270205      2.500887125
H      -1.306003205      0.095694075      2.347750086
H      -0.930966782     -0.052451392     -0.619006745
           6
  t=         3.00000    5    2
C      -0.005559005     -0.009526505     -0.179579326
Si      0.001821636     -0.001489442      1.569753690
H       0.940053973      0.161451459     -0.704458636
H       1.319662585     -0.054835045      2.505339549
H      -1.305041394      0.099208317      2.350658997
H      -0.939056910     -0.051050442     -0.618686155
